<?xml version="1.0" encoding="utf-8"?>
<additional xmlns:xsi="http://www.w3.org/2001/XMLSchema-instance" xsi:noNamespaceSchemaLocation="http://sumo.dlr.de/xsd/additional_file.xsd">
    <vType id="ego_Ariya" vClass="passenger" accel="3.5" decel="4.5" sigma="0.5" length="4.5" width="1.85" maxSpeed="50.0" color="0,255,0">
        <param key="platform" value="EV"/>
        <param key="batteryCapacity" value="60.0"/>
    </vType>
    <vType id="passenger_car" vClass="passenger" accel="2.6" decel="4.5" sigma="0.5" length="4.5" maxSpeed="50" guiShape="sedan"/>
    <vType id="suv" vClass="passenger" accel="2.4" decel="4.8" sigma="0.5" length="4.5" maxSpeed="50" guiShape="SUV"/>
    <vType id="small_car" vClass="passenger" accel="2.8" decel="3.7" sigma="0.5" length="4.5" maxSpeed="50" guiShape="hatchback"/>
</additional>
